/*--------------------------------*- C++ -*----------------------------------*\
  =========                 |
  \\      /  F ield         | OpenFOAM: The Open Source CFD Toolbox
   \\    /   O peration     | Website:  https://openfoam.org
    \\  /    A nd           | Version:  10
     \\/     M anipulation  |
\*---------------------------------------------------------------------------*/
FoamFile
{
    format      ascii;
    class       featureEdgeMesh;
    location    "constant/triSurface";
    object      tomato_plant.eMesh;
}
// * * * * * * * * * * * * * * * * * * * * * * * * * * * * * * * * * * * * * //


// points:

13824
(
(0.25 0.879711 0.942941)
(0.25 0.88 0.94)
(0.27 0.879711 0.942941)
(0.27 0.88 0.94)
(0.25 0.878847 0.945853)
(0.27 0.878847 0.945853)
(0.25 0.877416 0.948709)
(0.27 0.877416 0.948709)
(0.25 0.875433 0.951481)
(0.27 0.875433 0.951481)
(0.25 0.872915 0.954142)
(0.27 0.872915 0.954142)
(0.25 0.869888 0.956667)
(0.27 0.869888 0.956667)
(0.25 0.866381 0.959032)
(0.27 0.866381 0.959032)
(0.25 0.862426 0.961213)
(0.27 0.862426 0.961213)
(0.25 0.858064 0.96319)
(0.27 0.858064 0.96319)
(0.25 0.853334 0.964944)
(0.27 0.853334 0.964944)
(0.25 0.848284 0.966458)
(0.27 0.848284 0.966458)
(0.25 0.842961 0.967716)
(0.27 0.842961 0.967716)
(0.25 0.837417 0.968708)
(0.27 0.837417 0.968708)
(0.25 0.831705 0.969424)
(0.27 0.831705 0.969424)
(0.25 0.825881 0.969856)
(0.27 0.825881 0.969856)
(0.25 0.82 0.97)
(0.27 0.82 0.97)
(0.25 0.814119 0.969856)
(0.27 0.814119 0.969856)
(0.25 0.808295 0.969424)
(0.27 0.808295 0.969424)
(0.25 0.802583 0.968708)
(0.27 0.802583 0.968708)
(0.25 0.797039 0.967716)
(0.27 0.797039 0.967716)
(0.25 0.791716 0.966458)
(0.27 0.791716 0.966458)
(0.25 0.786666 0.964944)
(0.27 0.786666 0.964944)
(0.25 0.781936 0.96319)
(0.27 0.781936 0.96319)
(0.25 0.777574 0.961213)
(0.27 0.777574 0.961213)
(0.25 0.773619 0.959032)
(0.27 0.773619 0.959032)
(0.25 0.770112 0.956667)
(0.27 0.770112 0.956667)
(0.25 0.767085 0.954142)
(0.27 0.767085 0.954142)
(0.25 0.764567 0.951481)
(0.27 0.764567 0.951481)
(0.25 0.762584 0.948709)
(0.27 0.762584 0.948709)
(0.25 0.761153 0.945853)
(0.27 0.761153 0.945853)
(0.25 0.760289 0.942941)
(0.27 0.760289 0.942941)
(0.25 0.76 0.94)
(0.27 0.76 0.94)
(0.25 0.760289 0.937059)
(0.27 0.760289 0.937059)
(0.25 0.761153 0.934147)
(0.27 0.761153 0.934147)
(0.25 0.762584 0.931291)
(0.27 0.762584 0.931291)
(0.25 0.764567 0.928519)
(0.27 0.764567 0.928519)
(0.25 0.767085 0.925858)
(0.27 0.767085 0.925858)
(0.25 0.770112 0.923333)
(0.27 0.770112 0.923333)
(0.25 0.773619 0.920968)
(0.27 0.773619 0.920968)
(0.25 0.777574 0.918787)
(0.27 0.777574 0.918787)
(0.25 0.781936 0.91681)
(0.27 0.781936 0.91681)
(0.25 0.786666 0.915056)
(0.27 0.786666 0.915056)
(0.25 0.791716 0.913542)
(0.27 0.791716 0.913542)
(0.25 0.797039 0.912284)
(0.27 0.797039 0.912284)
(0.25 0.802583 0.911292)
(0.27 0.802583 0.911292)
(0.25 0.808295 0.910576)
(0.27 0.808295 0.910576)
(0.25 0.814119 0.910144)
(0.27 0.814119 0.910144)
(0.25 0.82 0.91)
(0.27 0.82 0.91)
(0.25 0.825881 0.910144)
(0.27 0.825881 0.910144)
(0.25 0.831705 0.910576)
(0.27 0.831705 0.910576)
(0.25 0.837417 0.911292)
(0.27 0.837417 0.911292)
(0.25 0.842961 0.912284)
(0.27 0.842961 0.912284)
(0.25 0.848284 0.913542)
(0.27 0.848284 0.913542)
(0.25 0.853334 0.915056)
(0.27 0.853334 0.915056)
(0.25 0.858064 0.91681)
(0.27 0.858064 0.91681)
(0.25 0.862426 0.918787)
(0.27 0.862426 0.918787)
(0.25 0.866381 0.920968)
(0.27 0.866381 0.920968)
(0.25 0.869888 0.923333)
(0.27 0.869888 0.923333)
(0.25 0.872915 0.925858)
(0.27 0.872915 0.925858)
(0.25 0.875433 0.928519)
(0.27 0.875433 0.928519)
(0.25 0.877416 0.931291)
(0.27 0.877416 0.931291)
(0.25 0.878847 0.934147)
(0.27 0.878847 0.934147)
(0.25 0.879711 0.937059)
(0.27 0.879711 0.937059)
(0.25 1.03971 0.942941)
(0.25 1.04 0.94)
(0.27 1.03971 0.942941)
(0.27 1.04 0.94)
(0.25 1.03885 0.945853)
(0.27 1.03885 0.945853)
(0.25 1.03742 0.948709)
(0.27 1.03742 0.948709)
(0.25 1.03543 0.951481)
(0.27 1.03543 0.951481)
(0.25 1.03292 0.954142)
(0.27 1.03292 0.954142)
(0.25 1.02989 0.956667)
(0.27 1.02989 0.956667)
(0.25 1.02638 0.959032)
(0.27 1.02638 0.959032)
(0.25 1.02243 0.961213)
(0.27 1.02243 0.961213)
(0.25 1.01806 0.96319)
(0.27 1.01806 0.96319)
(0.25 1.01333 0.964944)
(0.27 1.01333 0.964944)
(0.25 1.00828 0.966458)
(0.27 1.00828 0.966458)
(0.25 1.00296 0.967716)
(0.27 1.00296 0.967716)
(0.25 0.997417 0.968708)
(0.27 0.997417 0.968708)
(0.25 0.991705 0.969424)
(0.27 0.991705 0.969424)
(0.25 0.985881 0.969856)
(0.27 0.985881 0.969856)
(0.25 0.98 0.97)
(0.27 0.98 0.97)
(0.25 0.974119 0.969856)
(0.27 0.974119 0.969856)
(0.25 0.968295 0.969424)
(0.27 0.968295 0.969424)
(0.25 0.962583 0.968708)
(0.27 0.962583 0.968708)
(0.25 0.957039 0.967716)
(0.27 0.957039 0.967716)
(0.25 0.951716 0.966458)
(0.27 0.951716 0.966458)
(0.25 0.946666 0.964944)
(0.27 0.946666 0.964944)
(0.25 0.941936 0.96319)
(0.27 0.941936 0.96319)
(0.25 0.937574 0.961213)
(0.27 0.937574 0.961213)
(0.25 0.933619 0.959032)
(0.27 0.933619 0.959032)
(0.25 0.930112 0.956667)
(0.27 0.930112 0.956667)
(0.25 0.927085 0.954142)
(0.27 0.927085 0.954142)
(0.25 0.924567 0.951481)
(0.27 0.924567 0.951481)
(0.25 0.922584 0.948709)
(0.27 0.922584 0.948709)
(0.25 0.921153 0.945853)
(0.27 0.921153 0.945853)
(0.25 0.920289 0.942941)
(0.27 0.920289 0.942941)
(0.25 0.92 0.94)
(0.27 0.92 0.94)
(0.25 0.920289 0.937059)
(0.27 0.920289 0.937059)
(0.25 0.921153 0.934147)
(0.27 0.921153 0.934147)
(0.25 0.922584 0.931291)
(0.27 0.922584 0.931291)
(0.25 0.924567 0.928519)
(0.27 0.924567 0.928519)
(0.25 0.927085 0.925858)
(0.27 0.927085 0.925858)
(0.25 0.930112 0.923333)
(0.27 0.930112 0.923333)
(0.25 0.933619 0.920968)
(0.27 0.933619 0.920968)
(0.25 0.937574 0.918787)
(0.27 0.937574 0.918787)
(0.25 0.941936 0.91681)
(0.27 0.941936 0.91681)
(0.25 0.946666 0.915056)
(0.27 0.946666 0.915056)
(0.25 0.951716 0.913542)
(0.27 0.951716 0.913542)
(0.25 0.957039 0.912284)
(0.27 0.957039 0.912284)
(0.25 0.962583 0.911292)
(0.27 0.962583 0.911292)
(0.25 0.968295 0.910576)
(0.27 0.968295 0.910576)
(0.25 0.974119 0.910144)
(0.27 0.974119 0.910144)
(0.25 0.98 0.91)
(0.27 0.98 0.91)
(0.25 0.985881 0.910144)
(0.27 0.985881 0.910144)
(0.25 0.991705 0.910576)
(0.27 0.991705 0.910576)
(0.25 0.997417 0.911292)
(0.27 0.997417 0.911292)
(0.25 1.00296 0.912284)
(0.27 1.00296 0.912284)
(0.25 1.00828 0.913542)
(0.27 1.00828 0.913542)
(0.25 1.01333 0.915056)
(0.27 1.01333 0.915056)
(0.25 1.01806 0.91681)
(0.27 1.01806 0.91681)
(0.25 1.02243 0.918787)
(0.27 1.02243 0.918787)
(0.25 1.02638 0.920968)
(0.27 1.02638 0.920968)
(0.25 1.02989 0.923333)
(0.27 1.02989 0.923333)
(0.25 1.03292 0.925858)
(0.27 1.03292 0.925858)
(0.25 1.03543 0.928519)
(0.27 1.03543 0.928519)
(0.25 1.03742 0.931291)
(0.27 1.03742 0.931291)
(0.25 1.03885 0.934147)
(0.27 1.03885 0.934147)
(0.25 1.03971 0.937059)
(0.27 1.03971 0.937059)
(0.25 0.839711 0.882941)
(0.25 0.84 0.88)
(0.27 0.839711 0.882941)
(0.27 0.84 0.88)
(0.25 0.838847 0.885853)
(0.27 0.838847 0.885853)
(0.25 0.837416 0.888709)
(0.27 0.837416 0.888709)
(0.25 0.835433 0.891481)
(0.27 0.835433 0.891481)
(0.25 0.832915 0.894142)
(0.27 0.832915 0.894142)
(0.25 0.829888 0.896667)
(0.27 0.829888 0.896667)
(0.25 0.826381 0.899032)
(0.27 0.826381 0.899032)
(0.25 0.822426 0.901213)
(0.27 0.822426 0.901213)
(0.25 0.818064 0.90319)
(0.27 0.818064 0.90319)
(0.25 0.813334 0.904944)
(0.27 0.813334 0.904944)
(0.25 0.808284 0.906458)
(0.27 0.808284 0.906458)
(0.25 0.802961 0.907716)
(0.27 0.802961 0.907716)
(0.25 0.797417 0.908708)
(0.27 0.797417 0.908708)
(0.25 0.791705 0.909424)
(0.27 0.791705 0.909424)
(0.25 0.785881 0.909856)
(0.27 0.785881 0.909856)
(0.25 0.78 0.91)
(0.27 0.78 0.91)
(0.25 0.774119 0.909856)
(0.27 0.774119 0.909856)
(0.25 0.768295 0.909424)
(0.27 0.768295 0.909424)
(0.25 0.762583 0.908708)
(0.27 0.762583 0.908708)
(0.25 0.757039 0.907716)
(0.27 0.757039 0.907716)
(0.25 0.751716 0.906458)
(0.27 0.751716 0.906458)
(0.25 0.746666 0.904944)
(0.27 0.746666 0.904944)
(0.25 0.741936 0.90319)
(0.27 0.741936 0.90319)
(0.25 0.737574 0.901213)
(0.27 0.737574 0.901213)
(0.25 0.733619 0.899032)
(0.27 0.733619 0.899032)
(0.25 0.730112 0.896667)
(0.27 0.730112 0.896667)
(0.25 0.727085 0.894142)
(0.27 0.727085 0.894142)
(0.25 0.724567 0.891481)
(0.27 0.724567 0.891481)
(0.25 0.722584 0.888709)
(0.27 0.722584 0.888709)
(0.25 0.721153 0.885853)
(0.27 0.721153 0.885853)
(0.25 0.720289 0.882941)
(0.27 0.720289 0.882941)
(0.25 0.72 0.88)
(0.27 0.72 0.88)
(0.25 0.720289 0.877059)
(0.27 0.720289 0.877059)
(0.25 0.721153 0.874147)
(0.27 0.721153 0.874147)
(0.25 0.722584 0.871291)
(0.27 0.722584 0.871291)
(0.25 0.724567 0.868519)
(0.27 0.724567 0.868519)
(0.25 0.727085 0.865858)
(0.27 0.727085 0.865858)
(0.25 0.730112 0.863333)
(0.27 0.730112 0.863333)
(0.25 0.733619 0.860968)
(0.27 0.733619 0.860968)
(0.25 0.737574 0.858787)
(0.27 0.737574 0.858787)
(0.25 0.741936 0.85681)
(0.27 0.741936 0.85681)
(0.25 0.746666 0.855056)
(0.27 0.746666 0.855056)
(0.25 0.751716 0.853542)
(0.27 0.751716 0.853542)
(0.25 0.757039 0.852284)
(0.27 0.757039 0.852284)
(0.25 0.762583 0.851292)
(0.27 0.762583 0.851292)
(0.25 0.768295 0.850576)
(0.27 0.768295 0.850576)
(0.25 0.774119 0.850144)
(0.27 0.774119 0.850144)
(0.25 0.78 0.85)
(0.27 0.78 0.85)
(0.25 0.785881 0.850144)
(0.27 0.785881 0.850144)
(0.25 0.791705 0.850576)
(0.27 0.791705 0.850576)
(0.25 0.797417 0.851292)
(0.27 0.797417 0.851292)
(0.25 0.802961 0.852284)
(0.27 0.802961 0.852284)
(0.25 0.808284 0.853542)
(0.27 0.808284 0.853542)
(0.25 0.813334 0.855056)
(0.27 0.813334 0.855056)
(0.25 0.818064 0.85681)
(0.27 0.818064 0.85681)
(0.25 0.822426 0.858787)
(0.27 0.822426 0.858787)
(0.25 0.826381 0.860968)
(0.27 0.826381 0.860968)
(0.25 0.829888 0.863333)
(0.27 0.829888 0.863333)
(0.25 0.832915 0.865858)
(0.27 0.832915 0.865858)
(0.25 0.835433 0.868519)
(0.27 0.835433 0.868519)
(0.25 0.837416 0.871291)
(0.27 0.837416 0.871291)
(0.25 0.838847 0.874147)
(0.27 0.838847 0.874147)
(0.25 0.839711 0.877059)
(0.27 0.839711 0.877059)
(0.25 1.07971 0.882941)
(0.25 1.08 0.88)
(0.27 1.07971 0.882941)
(0.27 1.08 0.88)
(0.25 1.07885 0.885853)
(0.27 1.07885 0.885853)
(0.25 1.07742 0.888709)
(0.27 1.07742 0.888709)
(0.25 1.07543 0.891481)
(0.27 1.07543 0.891481)
(0.25 1.07292 0.894142)
(0.27 1.07292 0.894142)
(0.25 1.06989 0.896667)
(0.27 1.06989 0.896667)
(0.25 1.06638 0.899032)
(0.27 1.06638 0.899032)
(0.25 1.06243 0.901213)
(0.27 1.06243 0.901213)
(0.25 1.05806 0.90319)
(0.27 1.05806 0.90319)
(0.25 1.05333 0.904944)
(0.27 1.05333 0.904944)
(0.25 1.04828 0.906458)
(0.27 1.04828 0.906458)
(0.25 1.04296 0.907716)
(0.27 1.04296 0.907716)
(0.25 1.03742 0.908708)
(0.27 1.03742 0.908708)
(0.25 1.03171 0.909424)
(0.27 1.03171 0.909424)
(0.25 1.02588 0.909856)
(0.27 1.02588 0.909856)
(0.25 1.02 0.91)
(0.27 1.02 0.91)
(0.25 1.01412 0.909856)
(0.27 1.01412 0.909856)
(0.25 1.00829 0.909424)
(0.27 1.00829 0.909424)
(0.25 1.00258 0.908708)
(0.27 1.00258 0.908708)
(0.25 0.997039 0.907716)
(0.27 0.997039 0.907716)
(0.25 0.991716 0.906458)
(0.27 0.991716 0.906458)
(0.25 0.986666 0.904944)
(0.27 0.986666 0.904944)
(0.25 0.981936 0.90319)
(0.27 0.981936 0.90319)
(0.25 0.977574 0.901213)
(0.27 0.977574 0.901213)
(0.25 0.973619 0.899032)
(0.27 0.973619 0.899032)
(0.25 0.970112 0.896667)
(0.27 0.970112 0.896667)
(0.25 0.967085 0.894142)
(0.27 0.967085 0.894142)
(0.25 0.964567 0.891481)
(0.27 0.964567 0.891481)
(0.25 0.962584 0.888709)
(0.27 0.962584 0.888709)
(0.25 0.961153 0.885853)
(0.27 0.961153 0.885853)
(0.25 0.960289 0.882941)
(0.27 0.960289 0.882941)
(0.25 0.96 0.88)
(0.27 0.96 0.88)
(0.25 0.960289 0.877059)
(0.27 0.960289 0.877059)
(0.25 0.961153 0.874147)
(0.27 0.961153 0.874147)
(0.25 0.962584 0.871291)
(0.27 0.962584 0.871291)
(0.25 0.964567 0.868519)
(0.27 0.964567 0.868519)
(0.25 0.967085 0.865858)
(0.27 0.967085 0.865858)
(0.25 0.970112 0.863333)
(0.27 0.970112 0.863333)
(0.25 0.973619 0.860968)
(0.27 0.973619 0.860968)
(0.25 0.977574 0.858787)
(0.27 0.977574 0.858787)
(0.25 0.981936 0.85681)
(0.27 0.981936 0.85681)
(0.25 0.986666 0.855056)
(0.27 0.986666 0.855056)
(0.25 0.991716 0.853542)
(0.27 0.991716 0.853542)
(0.25 0.997039 0.852284)
(0.27 0.997039 0.852284)
(0.25 1.00258 0.851292)
(0.27 1.00258 0.851292)
(0.25 1.00829 0.850576)
(0.27 1.00829 0.850576)
(0.25 1.01412 0.850144)
(0.27 1.01412 0.850144)
(0.25 1.02 0.85)
(0.27 1.02 0.85)
(0.25 1.02588 0.850144)
(0.27 1.02588 0.850144)
(0.25 1.03171 0.850576)
(0.27 1.03171 0.850576)
(0.25 1.03742 0.851292)
(0.27 1.03742 0.851292)
(0.25 1.04296 0.852284)
(0.27 1.04296 0.852284)
(0.25 1.04828 0.853542)
(0.27 1.04828 0.853542)
(0.25 1.05333 0.855056)
(0.27 1.05333 0.855056)
(0.25 1.05806 0.85681)
(0.27 1.05806 0.85681)
(0.25 1.06243 0.858787)
(0.27 1.06243 0.858787)
(0.25 1.06638 0.860968)
(0.27 1.06638 0.860968)
(0.25 1.06989 0.863333)
(0.27 1.06989 0.863333)
(0.25 1.07292 0.865858)
(0.27 1.07292 0.865858)
(0.25 1.07543 0.868519)
(0.27 1.07543 0.868519)
(0.25 1.07742 0.871291)
(0.27 1.07742 0.871291)
(0.25 1.07885 0.874147)
(0.27 1.07885 0.874147)
(0.25 1.07971 0.877059)
(0.27 1.07971 0.877059)
(0.25 0.859711 0.822941)
(0.25 0.86 0.82)
(0.27 0.859711 0.822941)
(0.27 0.86 0.82)
(0.25 0.858847 0.825853)
(0.27 0.858847 0.825853)
(0.25 0.857416 0.828709)
(0.27 0.857416 0.828709)
(0.25 0.855433 0.831481)
(0.27 0.855433 0.831481)
(0.25 0.852915 0.834142)
(0.27 0.852915 0.834142)
(0.25 0.849888 0.836667)
(0.27 0.849888 0.836667)
(0.25 0.846381 0.839032)
(0.27 0.846381 0.839032)
(0.25 0.842426 0.841213)
(0.27 0.842426 0.841213)
(0.25 0.838064 0.84319)
(0.27 0.838064 0.84319)
(0.25 0.833334 0.844944)
(0.27 0.833334 0.844944)
(0.25 0.828284 0.846458)
(0.27 0.828284 0.846458)
(0.25 0.822961 0.847716)
(0.27 0.822961 0.847716)
(0.25 0.817417 0.848708)
(0.27 0.817417 0.848708)
(0.25 0.811705 0.849424)
(0.27 0.811705 0.849424)
(0.25 0.805881 0.849856)
(0.27 0.805881 0.849856)
(0.25 0.8 0.85)
(0.27 0.8 0.85)
(0.25 0.794119 0.849856)
(0.27 0.794119 0.849856)
(0.25 0.788295 0.849424)
(0.27 0.788295 0.849424)
(0.25 0.782583 0.848708)
(0.27 0.782583 0.848708)
(0.25 0.777039 0.847716)
(0.27 0.777039 0.847716)
(0.25 0.771716 0.846458)
(0.27 0.771716 0.846458)
(0.25 0.766666 0.844944)
(0.27 0.766666 0.844944)
(0.25 0.761936 0.84319)
(0.27 0.761936 0.84319)
(0.25 0.757574 0.841213)
(0.27 0.757574 0.841213)
(0.25 0.753619 0.839032)
(0.27 0.753619 0.839032)
(0.25 0.750112 0.836667)
(0.27 0.750112 0.836667)
(0.25 0.747085 0.834142)
(0.27 0.747085 0.834142)
(0.25 0.744567 0.831481)
(0.27 0.744567 0.831481)
(0.25 0.742584 0.828709)
(0.27 0.742584 0.828709)
(0.25 0.741153 0.825853)
(0.27 0.741153 0.825853)
(0.25 0.740289 0.822941)
(0.27 0.740289 0.822941)
(0.25 0.74 0.82)
(0.27 0.74 0.82)
(0.25 0.740289 0.817059)
(0.27 0.740289 0.817059)
(0.25 0.741153 0.814147)
(0.27 0.741153 0.814147)
(0.25 0.742584 0.811291)
(0.27 0.742584 0.811291)
(0.25 0.744567 0.808519)
(0.27 0.744567 0.808519)
(0.25 0.747085 0.805858)
(0.27 0.747085 0.805858)
(0.25 0.750112 0.803333)
(0.27 0.750112 0.803333)
(0.25 0.753619 0.800968)
(0.27 0.753619 0.800968)
(0.25 0.757574 0.798787)
(0.27 0.757574 0.798787)
(0.25 0.761936 0.79681)
(0.27 0.761936 0.79681)
(0.25 0.766666 0.795056)
(0.27 0.766666 0.795056)
(0.25 0.771716 0.793542)
(0.27 0.771716 0.793542)
(0.25 0.777039 0.792284)
(0.27 0.777039 0.792284)
(0.25 0.782583 0.791292)
(0.27 0.782583 0.791292)
(0.25 0.788295 0.790576)
(0.27 0.788295 0.790576)
(0.25 0.794119 0.790144)
(0.27 0.794119 0.790144)
(0.25 0.8 0.79)
(0.27 0.8 0.79)
(0.25 0.805881 0.790144)
(0.27 0.805881 0.790144)
(0.25 0.811705 0.790576)
(0.27 0.811705 0.790576)
(0.25 0.817417 0.791292)
(0.27 0.817417 0.791292)
(0.25 0.822961 0.792284)
(0.27 0.822961 0.792284)
(0.25 0.828284 0.793542)
(0.27 0.828284 0.793542)
(0.25 0.833334 0.795056)
(0.27 0.833334 0.795056)
(0.25 0.838064 0.79681)
(0.27 0.838064 0.79681)
(0.25 0.842426 0.798787)
(0.27 0.842426 0.798787)
(0.25 0.846381 0.800968)
(0.27 0.846381 0.800968)
(0.25 0.849888 0.803333)
(0.27 0.849888 0.803333)
(0.25 0.852915 0.805858)
(0.27 0.852915 0.805858)
(0.25 0.855433 0.808519)
(0.27 0.855433 0.808519)
(0.25 0.857416 0.811291)
(0.27 0.857416 0.811291)
(0.25 0.858847 0.814147)
(0.27 0.858847 0.814147)
(0.25 0.859711 0.817059)
(0.27 0.859711 0.817059)
(0.25 1.05971 0.822941)
(0.25 1.06 0.82)
(0.27 1.05971 0.822941)
(0.27 1.06 0.82)
(0.25 1.05885 0.825853)
(0.27 1.05885 0.825853)
(0.25 1.05742 0.828709)
(0.27 1.05742 0.828709)
(0.25 1.05543 0.831481)
(0.27 1.05543 0.831481)
(0.25 1.05292 0.834142)
(0.27 1.05292 0.834142)
(0.25 1.04989 0.836667)
(0.27 1.04989 0.836667)
(0.25 1.04638 0.839032)
(0.27 1.04638 0.839032)
(0.25 1.04243 0.841213)
(0.27 1.04243 0.841213)
(0.25 1.03806 0.84319)
(0.27 1.03806 0.84319)
(0.25 1.03333 0.844944)
(0.27 1.03333 0.844944)
(0.25 1.02828 0.846458)
(0.27 1.02828 0.846458)
(0.25 1.02296 0.847716)
(0.27 1.02296 0.847716)
(0.25 1.01742 0.848708)
(0.27 1.01742 0.848708)
(0.25 1.01171 0.849424)
(0.27 1.01171 0.849424)
(0.25 1.00588 0.849856)
(0.27 1.00588 0.849856)
(0.25 1 0.85)
(0.27 1 0.85)
(0.25 0.994119 0.849856)
(0.27 0.994119 0.849856)
(0.25 0.988295 0.849424)
(0.27 0.988295 0.849424)
(0.25 0.982583 0.848708)
(0.27 0.982583 0.848708)
(0.25 0.977039 0.847716)
(0.27 0.977039 0.847716)
(0.25 0.971716 0.846458)
(0.27 0.971716 0.846458)
(0.25 0.966666 0.844944)
(0.27 0.966666 0.844944)
(0.25 0.961936 0.84319)
(0.27 0.961936 0.84319)
(0.25 0.957574 0.841213)
(0.27 0.957574 0.841213)
(0.25 0.953619 0.839032)
(0.27 0.953619 0.839032)
(0.25 0.950112 0.836667)
(0.27 0.950112 0.836667)
(0.25 0.947085 0.834142)
(0.27 0.947085 0.834142)
(0.25 0.944567 0.831481)
(0.27 0.944567 0.831481)
(0.25 0.942584 0.828709)
(0.27 0.942584 0.828709)
(0.25 0.941153 0.825853)
(0.27 0.941153 0.825853)
(0.25 0.940289 0.822941)
(0.27 0.940289 0.822941)
(0.25 0.94 0.82)
(0.27 0.94 0.82)
(0.25 0.940289 0.817059)
(0.27 0.940289 0.817059)
(0.25 0.941153 0.814147)
(0.27 0.941153 0.814147)
(0.25 0.942584 0.811291)
(0.27 0.942584 0.811291)
(0.25 0.944567 0.808519)
(0.27 0.944567 0.808519)
(0.25 0.947085 0.805858)
(0.27 0.947085 0.805858)
(0.25 0.950112 0.803333)
(0.27 0.950112 0.803333)
(0.25 0.953619 0.800968)
(0.27 0.953619 0.800968)
(0.25 0.957574 0.798787)
(0.27 0.957574 0.798787)
(0.25 0.961936 0.79681)
(0.27 0.961936 0.79681)
(0.25 0.966666 0.795056)
(0.27 0.966666 0.795056)
(0.25 0.971716 0.793542)
(0.27 0.971716 0.793542)
(0.25 0.977039 0.792284)
(0.27 0.977039 0.792284)
(0.25 0.982583 0.791292)
(0.27 0.982583 0.791292)
(0.25 0.988295 0.790576)
(0.27 0.988295 0.790576)
(0.25 0.994119 0.790144)
(0.27 0.994119 0.790144)
(0.25 1 0.79)
(0.27 1 0.79)
(0.25 1.00588 0.790144)
(0.27 1.00588 0.790144)
(0.25 1.01171 0.790576)
(0.27 1.01171 0.790576)
(0.25 1.01742 0.791292)
(0.27 1.01742 0.791292)
(0.25 1.02296 0.792284)
(0.27 1.02296 0.792284)
(0.25 1.02828 0.793542)
(0.27 1.02828 0.793542)
(0.25 1.03333 0.795056)
(0.27 1.03333 0.795056)
(0.25 1.03806 0.79681)
(0.27 1.03806 0.79681)
(0.25 1.04243 0.798787)
(0.27 1.04243 0.798787)
(0.25 1.04638 0.800968)
(0.27 1.04638 0.800968)
(0.25 1.04989 0.803333)
(0.27 1.04989 0.803333)
(0.25 1.05292 0.805858)
(0.27 1.05292 0.805858)
(0.25 1.05543 0.808519)
(0.27 1.05543 0.808519)
(0.25 1.05742 0.811291)
(0.27 1.05742 0.811291)
(0.25 1.05885 0.814147)
(0.27 1.05885 0.814147)
(0.25 1.05971 0.817059)
(0.27 1.05971 0.817059)
(0.25 0.879711 0.762941)
(0.25 0.88 0.76)
(0.27 0.879711 0.762941)
(0.27 0.88 0.76)
(0.25 0.878847 0.765853)
(0.27 0.878847 0.765853)
(0.25 0.877416 0.768709)
(0.27 0.877416 0.768709)
(0.25 0.875433 0.771481)
(0.27 0.875433 0.771481)
(0.25 0.872915 0.774142)
(0.27 0.872915 0.774142)
(0.25 0.869888 0.776667)
(0.27 0.869888 0.776667)
(0.25 0.866381 0.779032)
(0.27 0.866381 0.779032)
(0.25 0.862426 0.781213)
(0.27 0.862426 0.781213)
(0.25 0.858064 0.78319)
(0.27 0.858064 0.78319)
(0.25 0.853334 0.784944)
(0.27 0.853334 0.784944)
(0.25 0.848284 0.786458)
(0.27 0.848284 0.786458)
(0.25 0.842961 0.787716)
(0.27 0.842961 0.787716)
(0.25 0.837417 0.788708)
(0.27 0.837417 0.788708)
(0.25 0.831705 0.789424)
(0.27 0.831705 0.789424)
(0.25 0.825881 0.789856)
(0.27 0.825881 0.789856)
(0.25 0.82 0.79)
(0.27 0.82 0.79)
(0.25 0.814119 0.789856)
(0.27 0.814119 0.789856)
(0.25 0.808295 0.789424)
(0.27 0.808295 0.789424)
(0.25 0.802583 0.788708)
(0.27 0.802583 0.788708)
(0.25 0.797039 0.787716)
(0.27 0.797039 0.787716)
(0.25 0.791716 0.786458)
(0.27 0.791716 0.786458)
(0.25 0.786666 0.784944)
(0.27 0.786666 0.784944)
(0.25 0.781936 0.78319)
(0.27 0.781936 0.78319)
(0.25 0.777574 0.781213)
(0.27 0.777574 0.781213)
(0.25 0.773619 0.779032)
(0.27 0.773619 0.779032)
(0.25 0.770112 0.776667)
(0.27 0.770112 0.776667)
(0.25 0.767085 0.774142)
(0.27 0.767085 0.774142)
(0.25 0.764567 0.771481)
(0.27 0.764567 0.771481)
(0.25 0.762584 0.768709)
(0.27 0.762584 0.768709)
(0.25 0.761153 0.765853)
(0.27 0.761153 0.765853)
(0.25 0.760289 0.762941)
(0.27 0.760289 0.762941)
(0.25 0.76 0.76)
(0.27 0.76 0.76)
(0.25 0.760289 0.75706)
(0.27 0.760289 0.75706)
(0.25 0.761153 0.754147)
(0.27 0.761153 0.754147)
(0.25 0.762584 0.751291)
(0.27 0.762584 0.751291)
(0.25 0.764567 0.748519)
(0.27 0.764567 0.748519)
(0.25 0.767085 0.745858)
(0.27 0.767085 0.745858)
(0.25 0.770112 0.743333)
(0.27 0.770112 0.743333)
(0.25 0.773619 0.740968)
(0.27 0.773619 0.740968)
(0.25 0.777574 0.738787)
(0.27 0.777574 0.738787)
(0.25 0.781936 0.73681)
(0.27 0.781936 0.73681)
(0.25 0.786666 0.735056)
(0.27 0.786666 0.735056)
(0.25 0.791716 0.733542)
(0.27 0.791716 0.733542)
(0.25 0.797039 0.732284)
(0.27 0.797039 0.732284)
(0.25 0.802583 0.731292)
(0.27 0.802583 0.731292)
(0.25 0.808295 0.730576)
(0.27 0.808295 0.730576)
(0.25 0.814119 0.730144)
(0.27 0.814119 0.730144)
(0.25 0.82 0.73)
(0.27 0.82 0.73)
(0.25 0.825881 0.730144)
(0.27 0.825881 0.730144)
(0.25 0.831705 0.730576)
(0.27 0.831705 0.730576)
(0.25 0.837417 0.731292)
(0.27 0.837417 0.731292)
(0.25 0.842961 0.732284)
(0.27 0.842961 0.732284)
(0.25 0.848284 0.733542)
(0.27 0.848284 0.733542)
(0.25 0.853334 0.735056)
(0.27 0.853334 0.735056)
(0.25 0.858064 0.73681)
(0.27 0.858064 0.73681)
(0.25 0.862426 0.738787)
(0.27 0.862426 0.738787)
(0.25 0.866381 0.740968)
(0.27 0.866381 0.740968)
(0.25 0.869888 0.743333)
(0.27 0.869888 0.743333)
(0.25 0.872915 0.745858)
(0.27 0.872915 0.745858)
(0.25 0.875433 0.748519)
(0.27 0.875433 0.748519)
(0.25 0.877416 0.751291)
(0.27 0.877416 0.751291)
(0.25 0.878847 0.754147)
(0.27 0.878847 0.754147)
(0.25 0.879711 0.75706)
(0.27 0.879711 0.75706)
(0.25 1.03971 0.762941)
(0.25 1.04 0.76)
(0.27 1.03971 0.762941)
(0.27 1.04 0.76)
(0.25 1.03885 0.765853)
(0.27 1.03885 0.765853)
(0.25 1.03742 0.768709)
(0.27 1.03742 0.768709)
(0.25 1.03543 0.771481)
(0.27 1.03543 0.771481)
(0.25 1.03292 0.774142)
(0.27 1.03292 0.774142)
(0.25 1.02989 0.776667)
(0.27 1.02989 0.776667)
(0.25 1.02638 0.779032)
(0.27 1.02638 0.779032)
(0.25 1.02243 0.781213)
(0.27 1.02243 0.781213)
(0.25 1.01806 0.78319)
(0.27 1.01806 0.78319)
(0.25 1.01333 0.784944)
(0.27 1.01333 0.784944)
(0.25 1.00828 0.786458)
(0.27 1.00828 0.786458)
(0.25 1.00296 0.787716)
(0.27 1.00296 0.787716)
(0.25 0.997417 0.788708)
(0.27 0.997417 0.788708)
(0.25 0.991705 0.789424)
(0.27 0.991705 0.789424)
(0.25 0.985881 0.789856)
(0.27 0.985881 0.789856)
(0.25 0.98 0.79)
(0.27 0.98 0.79)
(0.25 0.974119 0.789856)
(0.27 0.974119 0.789856)
(0.25 0.968295 0.789424)
(0.27 0.968295 0.789424)
(0.25 0.962583 0.788708)
(0.27 0.962583 0.788708)
(0.25 0.957039 0.787716)
(0.27 0.957039 0.787716)
(0.25 0.951716 0.786458)
(0.27 0.951716 0.786458)
(0.25 0.946666 0.784944)
(0.27 0.946666 0.784944)
(0.25 0.941936 0.78319)
(0.27 0.941936 0.78319)
(0.25 0.937574 0.781213)
(0.27 0.937574 0.781213)
(0.25 0.933619 0.779032)
(0.27 0.933619 0.779032)
(0.25 0.930112 0.776667)
(0.27 0.930112 0.776667)
(0.25 0.927085 0.774142)
(0.27 0.927085 0.774142)
(0.25 0.924567 0.771481)
(0.27 0.924567 0.771481)
(0.25 0.922584 0.768709)
(0.27 0.922584 0.768709)
(0.25 0.921153 0.765853)
(0.27 0.921153 0.765853)
(0.25 0.920289 0.762941)
(0.27 0.920289 0.762941)
(0.25 0.92 0.76)
(0.27 0.92 0.76)
(0.25 0.920289 0.75706)
(0.27 0.920289 0.75706)
(0.25 0.921153 0.754147)
(0.27 0.921153 0.754147)
(0.25 0.922584 0.751291)
(0.27 0.922584 0.751291)
(0.25 0.924567 0.748519)
(0.27 0.924567 0.748519)
(0.25 0.927085 0.745858)
(0.27 0.927085 0.745858)
(0.25 0.930112 0.743333)
(0.27 0.930112 0.743333)
(0.25 0.933619 0.740968)
(0.27 0.933619 0.740968)
(0.25 0.937574 0.738787)
(0.27 0.937574 0.738787)
(0.25 0.941936 0.73681)
(0.27 0.941936 0.73681)
(0.25 0.946666 0.735056)
(0.27 0.946666 0.735056)
(0.25 0.951716 0.733542)
(0.27 0.951716 0.733542)
(0.25 0.957039 0.732284)
(0.27 0.957039 0.732284)
(0.25 0.962583 0.731292)
(0.27 0.962583 0.731292)
(0.25 0.968295 0.730576)
(0.27 0.968295 0.730576)
(0.25 0.974119 0.730144)
(0.27 0.974119 0.730144)
(0.25 0.98 0.73)
(0.27 0.98 0.73)
(0.25 0.985881 0.730144)
(0.27 0.985881 0.730144)
(0.25 0.991705 0.730576)
(0.27 0.991705 0.730576)
(0.25 0.997417 0.731292)
(0.27 0.997417 0.731292)
(0.25 1.00296 0.732284)
(0.27 1.00296 0.732284)
(0.25 1.00828 0.733542)
(0.27 1.00828 0.733542)
(0.25 1.01333 0.735056)
(0.27 1.01333 0.735056)
(0.25 1.01806 0.73681)
(0.27 1.01806 0.73681)
(0.25 1.02243 0.738787)
(0.27 1.02243 0.738787)
(0.25 1.02638 0.740968)
(0.27 1.02638 0.740968)
(0.25 1.02989 0.743333)
(0.27 1.02989 0.743333)
(0.25 1.03292 0.745858)
(0.27 1.03292 0.745858)
(0.25 1.03543 0.748519)
(0.27 1.03543 0.748519)
(0.25 1.03742 0.751291)
(0.27 1.03742 0.751291)
(0.25 1.03885 0.754147)
(0.27 1.03885 0.754147)
(0.25 1.03971 0.75706)
(0.27 1.03971 0.75706)
(0.25 0.902941 0.640289)
(0.25 0.9 0.64)
(0.27 0.902941 0.640289)
(0.27 0.9 0.64)
(0.25 0.905853 0.641153)
(0.27 0.905853 0.641153)
(0.25 0.908709 0.642584)
(0.27 0.908709 0.642584)
(0.25 0.91148 0.644567)
(0.27 0.91148 0.644567)
(0.25 0.914142 0.647085)
(0.27 0.914142 0.647085)
(0.25 0.916667 0.650112)
(0.27 0.916667 0.650112)
(0.25 0.919032 0.653619)
(0.27 0.919032 0.653619)
(0.25 0.921213 0.657574)
(0.27 0.921213 0.657574)
(0.25 0.92319 0.661936)
(0.27 0.92319 0.661936)
(0.25 0.924944 0.666666)
(0.27 0.924944 0.666666)
(0.25 0.926458 0.671716)
(0.27 0.926458 0.671716)
(0.25 0.927716 0.677039)
(0.27 0.927716 0.677039)
(0.25 0.928708 0.682583)
(0.27 0.928708 0.682583)
(0.25 0.929424 0.688295)
(0.27 0.929424 0.688295)
(0.25 0.929856 0.694119)
(0.27 0.929856 0.694119)
(0.25 0.93 0.7)
(0.27 0.93 0.7)
(0.25 0.929856 0.705881)
(0.27 0.929856 0.705881)
(0.25 0.929424 0.711705)
(0.27 0.929424 0.711705)
(0.25 0.928708 0.717417)
(0.27 0.928708 0.717417)
(0.25 0.927716 0.722961)
(0.27 0.927716 0.722961)
(0.25 0.926458 0.728284)
(0.27 0.926458 0.728284)
(0.25 0.924944 0.733334)
(0.27 0.924944 0.733334)
(0.25 0.92319 0.738064)
(0.27 0.92319 0.738064)
(0.25 0.921213 0.742426)
(0.27 0.921213 0.742426)
(0.25 0.919032 0.746381)
(0.27 0.919032 0.746381)
(0.25 0.916667 0.749888)
(0.27 0.916667 0.749888)
(0.25 0.914142 0.752915)
(0.27 0.914142 0.752915)
(0.25 0.91148 0.755433)
(0.27 0.91148 0.755433)
(0.25 0.908709 0.757416)
(0.27 0.908709 0.757416)
(0.25 0.905853 0.758847)
(0.27 0.905853 0.758847)
(0.25 0.902941 0.759711)
(0.27 0.902941 0.759711)
(0.25 0.9 0.76)
(0.27 0.9 0.76)
(0.25 0.89706 0.759711)
(0.27 0.89706 0.759711)
(0.25 0.894147 0.758847)
(0.27 0.894147 0.758847)
(0.25 0.891291 0.757416)
(0.27 0.891291 0.757416)
(0.25 0.88852 0.755433)
(0.27 0.88852 0.755433)
(0.25 0.885858 0.752915)
(0.27 0.885858 0.752915)
(0.25 0.883333 0.749888)
(0.27 0.883333 0.749888)
(0.25 0.880968 0.746381)
(0.27 0.880968 0.746381)
(0.25 0.878787 0.742426)
(0.27 0.878787 0.742426)
(0.25 0.87681 0.738064)
(0.27 0.87681 0.738064)
(0.25 0.875056 0.733334)
(0.27 0.875056 0.733334)
(0.25 0.873542 0.728284)
(0.27 0.873542 0.728284)
(0.25 0.872284 0.722961)
(0.27 0.872284 0.722961)
(0.25 0.871292 0.717417)
(0.27 0.871292 0.717417)
(0.25 0.870576 0.711705)
(0.27 0.870576 0.711705)
(0.25 0.870144 0.705881)
(0.27 0.870144 0.705881)
(0.25 0.87 0.7)
(0.27 0.87 0.7)
(0.25 0.870144 0.694119)
(0.27 0.870144 0.694119)
(0.25 0.870576 0.688295)
(0.27 0.870576 0.688295)
(0.25 0.871292 0.682583)
(0.27 0.871292 0.682583)
(0.25 0.872284 0.677039)
(0.27 0.872284 0.677039)
(0.25 0.873542 0.671716)
(0.27 0.873542 0.671716)
(0.25 0.875056 0.666666)
(0.27 0.875056 0.666666)
(0.25 0.87681 0.661936)
(0.27 0.87681 0.661936)
(0.25 0.878787 0.657574)
(0.27 0.878787 0.657574)
(0.25 0.880968 0.653619)
(0.27 0.880968 0.653619)
(0.25 0.883333 0.650112)
(0.27 0.883333 0.650112)
(0.25 0.885858 0.647085)
(0.27 0.885858 0.647085)
(0.25 0.88852 0.644567)
(0.27 0.88852 0.644567)
(0.25 0.891291 0.642584)
(0.27 0.891291 0.642584)
(0.25 0.894147 0.641153)
(0.27 0.894147 0.641153)
(0.25 0.89706 0.640289)
(0.27 0.89706 0.640289)
(0.31 0.953507 1.02836)
(0.31 0.955281 1.03072)
(0.33 0.953507 1.02836)
(0.33 0.955281 1.03072)
(0.31 0.952177 1.02563)
(0.33 0.952177 1.02563)
(0.31 0.951302 1.02256)
(0.33 0.951302 1.02256)
(0.31 0.950892 1.01917)
(0.33 0.950892 1.01917)
(0.31 0.95095 1.01551)
(0.33 0.95095 1.01551)
(0.31 0.951476 1.01161)
(0.33 0.951476 1.01161)
(0.31 0.952465 1.00749)
(0.33 0.952465 1.00749)
(0.31 0.953906 1.00321)
(0.33 0.953906 1.00321)
(0.31 0.955787 0.998807)
(0.33 0.955787 0.998807)
(0.31 0.958089 0.994319)
(0.33 0.958089 0.994319)
(0.31 0.96079 0.989791)
(0.33 0.96079 0.989791)
(0.31 0.963864 0.985267)
(0.33 0.963864 0.985267)
(0.31 0.967281 0.98079)
(0.33 0.967281 0.98079)
(0.31 0.971009 0.976404)
(0.33 0.971009 0.976404)
(0.31 0.975012 0.972151)
(0.33 0.975012 0.972151)
(0.31 0.97925 0.968071)
(0.33 0.97925 0.968071)
(0.31 0.983683 0.964204)
(0.33 0.983683 0.964204)
(0.31 0.988269 0.960588)
(0.33 0.988269 0.960588)
(0.31 0.992964 0.957257)
(0.33 0.992964 0.957257)
(0.31 0.997721 0.954243)
(0.33 0.997721 0.954243)
(0.31 1.0025 0.951575)
(0.33 1.0025 0.951575)
(0.31 1.00724 0.949278)
(0.33 1.00724 0.949278)
(0.31 1.01191 0.947376)
(0.33 1.01191 0.947376)
(0.31 1.01647 0.945887)
(0.33 1.01647 0.945887)
(0.31 1.02086 0.944823)
(0.33 1.02086 0.944823)
(0.31 1.02504 0.944197)
(0.33 1.02504 0.944197)
(0.31 1.02898 0.944014)
(0.33 1.02898 0.944014)
(0.31 1.03263 0.944275)
(0.33 1.03263 0.944275)
(0.31 1.03597 0.944979)
(0.33 1.03597 0.944979)
(0.31 1.03895 0.946118)