/*--------------------------------*- C++ -*----------------------------------*\
| =========                 |                                                 |
| \      /  F ield         | OpenFOAM: The Open Source CFD Toolbox           |
|  \    /   O peration     | Version: 10                                     |
|   \  /    A nd           | Website:  https://openfoam.org                  |
|    \/     M anipulation  |                                                 |
\*---------------------------------------------------------------------------*/

FoamFile
{
    version     2.0;
    format      ascii;
    class       dictionary;
    object      nut;
}
// * * * * * * * * * * * * * * * * * * * * * * * * * * * * * * * * * * * * * //
dimensions      [0 2 -1 0 0 0 0];

internalField   uniform 0;

boundaryField
{
    inlet
    {
        type fixedValue;
        value uniform 0;
    }
    outlet
    {
        type zeroGradient;
    }
    walls
    {
        type nutkWallFunction;
        value uniform 0;
    }
    top
    {
        type nutkWallFunction;
        value uniform 0;
    }
    bottom
    {
        type nutkWallFunction;
        value uniform 0;
    }
    sides
    {
        type nutkWallFunction;
        value uniform 0;
    }
    tomato
    {
        type nutkWallFunction;
        value uniform 0;
    }
}